Version 4
SHEET 1 880 680
WIRE 448 0 352 0
WIRE 608 0 528 0
WIRE -128 80 -272 80
WIRE 80 80 -48 80
WIRE -272 128 -272 80
WIRE 80 128 80 80
WIRE 112 128 80 128
WIRE 352 128 352 0
WIRE 352 128 304 128
WIRE 480 128 352 128
WIRE 608 128 608 0
WIRE 352 192 304 192
WIRE 112 224 80 224
WIRE -272 256 -272 208
WIRE 80 256 80 224
WIRE 352 256 352 192
WIRE 480 256 480 192
WIRE 608 256 608 208
FLAG -272 256 0
FLAG 80 256 0
FLAG 608 256 0
FLAG 352 256 0
FLAG 480 256 0
SYMBOL Optos\\MOC205 208 192 R0
SYMATTR InstName U1
SYMBOL voltage -272 112 R0
WINDOW 123 0 0 Left 0
WINDOW 39 0 0 Left 0
SYMATTR InstName V1
SYMATTR Value SINE(0 300 50 0 0 0 100)
SYMBOL res -32 64 R90
WINDOW 0 0 56 VBottom 2
WINDOW 3 32 56 VTop 2
SYMATTR InstName R1
SYMATTR Value 100K
SYMBOL res 544 -16 R90
WINDOW 0 0 56 VBottom 2
WINDOW 3 32 56 VTop 2
SYMATTR InstName R2
SYMATTR Value 300K
SYMBOL voltage 608 112 R0
WINDOW 123 0 0 Left 0
WINDOW 39 0 0 Left 0
SYMATTR InstName V2
SYMATTR Value 5
SYMBOL cap 464 128 R0
SYMATTR InstName C1
SYMATTR Value .50µF
TEXT -306 280 Left 2 !.tran 3s
